OPT_V9/My_campus_w_initial_zero_20_03_15_45/powerflow_results_t1.txt
Pandapower Network Debug Info
==================================================

BUS:
       vm_pu  va_degree      p_mw    q_mvar
0   0.992919   0.123157  0.001000  0.001000
1   0.988478   0.201590  0.001500  0.002000
2   0.984490   0.278315  0.002000  0.003000
3   0.989125   0.203036  0.002500  0.004000
4   0.989304   0.228377  0.003000  0.005000
5   0.991825   0.151008  0.003500  0.006000
6   0.990084   0.154276  0.001200  0.001000
7   0.997502   0.024647  0.001800  0.002000
8   0.997794   0.040456  0.002200  0.003000
9   0.999886   0.000745  0.010000  0.010000
10  0.999872   0.000786  0.011000  0.009000
11  0.999862   0.000832  0.012000  0.011000
12  0.999772   0.001448  0.010000  0.006000
13  0.999744   0.001580  0.012000  0.010000
14  0.999754   0.001562  0.013000  0.012000
15  0.999929   0.000556  0.000000  0.000000
16  0.999929   0.000562  0.000000  0.000000
17  0.999777   0.001484  0.000000  0.000000
18  0.999777   0.001494  0.000000  0.000000
19  1.000000   0.000000 -0.040147 -0.045099
20  1.000000   0.000006  0.000000  0.000000
21  1.000000   0.000000 -0.046854 -0.050104
22  1.000000   0.000007  0.000000  0.000000
--------------------------------------------------

LINE:
    p_from_mw  q_from_mvar   p_to_mw  q_to_mvar         pl_mw       ql_mvar  i_from_ka   i_to_ka      i_ka  vm_from_pu  va_from_degree  vm_to_pu  va_to_degree  loading_percent
0    0.040137     0.041099 -0.040133  -0.041096  3.227874e-06  2.516826e-06   0.002211  0.002211  0.002211    1.000000        0.000006  0.999929      0.000556         0.961346
1    0.046844     0.046104 -0.046832  -0.046095  1.161994e-05  9.060260e-06   0.002530  0.002530  0.002530    1.000000        0.000007  0.999777      0.001484         1.099909
2    0.033002     0.030002 -0.033000  -0.030000  1.538450e-06  1.199554e-06   0.001717  0.001717  0.001717    0.999929        0.000556  0.999886      0.000745         0.746437
3    0.010000     0.006000 -0.010000  -0.006000  4.705328e-08  3.668822e-08   0.000449  0.000449  0.000449    0.999777        0.001484  0.999772      0.001448         0.195204
4    0.025001     0.022001 -0.025000  -0.022000  6.066974e-07  4.730520e-07   0.001282  0.001282  0.001282    0.999777        0.001484  0.999754      0.001562         0.557436
5    0.007121     0.010095 -0.007050  -0.010039  7.139158e-05  5.566519e-05   0.017832  0.017832  0.017832    0.999929        0.000562  0.992919      0.123157         7.753214
6    0.004758     0.007045 -0.004702  -0.007002  5.610049e-05  4.374247e-05   0.012274  0.012274  0.012274    0.999777        0.001494  0.991825      0.151008         5.336483
7    0.001805     0.002004 -0.001800  -0.002000  4.915929e-06  3.833031e-06   0.003893  0.003893  0.003893    0.999777        0.001494  0.997502      0.024647         1.692806
8    0.005258     0.008045 -0.005242  -0.008033  1.588996e-05  1.238966e-05   0.013876  0.013876  0.013876    0.999777        0.001494  0.997794      0.040456         6.032921
9   -0.023000    -0.020000  0.023000   0.020000  3.213545e-07  2.505654e-07   0.001173  0.001173  0.001173    0.999872        0.000786  0.999886      0.000745         0.510136
10  -0.012000    -0.011000  0.012000   0.011000  1.296384e-07  1.010812e-07   0.000627  0.000627  0.000627    0.999862        0.000832  0.999872      0.000786         0.272460
11   0.012000     0.010000 -0.012000  -0.010000  1.193933e-07  9.309291e-08   0.000601  0.000601  0.000601    0.999754        0.001562  0.999744      0.001580         0.261473
12  -0.003512    -0.005009  0.003535   0.005027  2.266364e-05  1.767121e-05   0.008933  0.008933  0.008933    0.988478        0.201590  0.992919      0.123157         3.884125
13  -0.002500    -0.004000  0.002515   0.004012  1.518445e-05  1.183956e-05   0.006883  0.006883  0.006883    0.989125        0.203036  0.992919      0.123157         2.992715
14  -0.002000    -0.003000  0.002012   0.003009  1.213317e-05  9.460433e-06   0.005286  0.005286  0.005286    0.984490        0.278315  0.988478      0.201590         2.298327
15   0.003042     0.005033 -0.003000  -0.005000  4.226900e-05  3.295784e-05   0.008507  0.008507  0.008507    0.997794        0.040456  0.989304      0.228377         3.698803
16  -0.001200    -0.001000  0.001202   0.001002  2.167080e-06  1.689708e-06   0.002277  0.002277  0.002277    0.990084        0.154276  0.991825      0.151008         0.990089
--------------------------------------------------

TRAFO:
    p_hv_mw  q_hv_mvar   p_lv_mw  q_lv_mvar    pl_mw  ql_mvar   i_hv_ka   i_lv_ka  vm_hv_pu  va_hv_degree  vm_lv_pu  va_lv_degree  loading_percent
0  0.007131   0.011094 -0.007121  -0.010095  0.00001    0.001  0.000508  0.017832  0.999929      0.000556  0.999929      0.000562         0.131897
1  0.011831   0.018094 -0.011821  -0.017095  0.00001    0.001  0.000832  0.030006  0.999777      0.001484  0.999777      0.001494         0.216237
2  0.040147   0.045099 -0.040137  -0.041099  0.00001    0.004  0.000498  0.002211  1.000000      0.000000  1.000000      0.000006         0.150948
3  0.046854   0.050104 -0.046844  -0.046104  0.00001    0.004  0.000566  0.002530  1.000000      0.000000  1.000000      0.000007         0.171495
--------------------------------------------------
